1658462257.235347s 1 https://api.dandiarchive.org/api/zarr/a1ff2991-8a1c-4a28-bb39-be8de780d497.zarr/0/0/0/6/2/77
1658462257.220297s 1 https://dandiarchive.s3.amazonaws.com/zarr/a1ff2991-8a1c-4a28-bb39-be8de780d497/0/0/0/6/2/77?versionId=MT3D2vEwx6S634oAXQb1Ks2zeKtyOSCD
